Data/networks/opendssNetworks/network_1/Feeder_4/Loads - Copy.txt
New Load.LOAD1 Phases=1 Bus1=32.1 kV=0.23 kW=1 PF=0.95
New Load.LOAD2 Phases=1 Bus1=52.1 kV=0.23 kW=1 PF=0.95
New Load.LOAD3 Phases=1 Bus1=53.1 kV=0.23 kW=1 PF=0.95
New Load.LOAD4 Phases=1 Bus1=61.2 kV=0.23 kW=1 PF=0.95
New Load.LOAD5 Phases=1 Bus1=74.2 kV=0.23 kW=1 PF=0.95
New Load.LOAD6 Phases=1 Bus1=75.2 kV=0.23 kW=1 PF=0.95
New Load.LOAD7 Phases=1 Bus1=167.1 kV=0.23 kW=1 PF=0.95
New Load.LOAD8 Phases=1 Bus1=174.1 kV=0.23 kW=1 PF=0.95
New Load.LOAD9 Phases=1 Bus1=184.2 kV=0.23 kW=1 PF=0.95
New Load.LOAD10 Phases=1 Bus1=190.3 kV=0.23 kW=1 PF=0.95
New Load.LOAD11 Phases=1 Bus1=206.2 kV=0.23 kW=1 PF=0.95
New Load.LOAD12 Phases=1 Bus1=246.2 kV=0.23 kW=1 PF=0.95
New Load.LOAD13 Phases=1 Bus1=247.1 kV=0.23 kW=1 PF=0.95
New Load.LOAD14 Phases=1 Bus1=248.1 kV=0.23 kW=1 PF=0.95
New Load.LOAD15 Phases=1 Bus1=249.1 kV=0.23 kW=1 PF=0.95
New Load.LOAD16 Phases=1 Bus1=280.1 kV=0.23 kW=1 PF=0.95
New Load.LOAD17 Phases=1 Bus1=288.2 kV=0.23 kW=1 PF=0.95
New Load.LOAD18 Phases=1 Bus1=292.3 kV=0.23 kW=1 PF=0.95
New Load.LOAD19 Phases=1 Bus1=294.2 kV=0.23 kW=1 PF=0.95
New Load.LOAD20 Phases=1 Bus1=302.2 kV=0.23 kW=1 PF=0.95
New Load.LOAD21 Phases=1 Bus1=303.2 kV=0.23 kW=1 PF=0.95
New Load.LOAD22 Phases=1 Bus1=311.1 kV=0.23 kW=1 PF=0.95
New Load.LOAD23 Phases=1 Bus1=358.2 kV=0.23 kW=1 PF=0.95
New Load.LOAD24 Phases=1 Bus1=366.2 kV=0.23 kW=1 PF=0.95
New Load.LOAD25 Phases=1 Bus1=397.3 kV=0.23 kW=1 PF=0.95
New Load.LOAD26 Phases=1 Bus1=411.1 kV=0.23 kW=1 PF=0.95
New Load.LOAD27 Phases=1 Bus1=414.3 kV=0.23 kW=1 PF=0.95
New Load.LOAD28 Phases=1 Bus1=416.1 kV=0.23 kW=1 PF=0.95
New Load.LOAD29 Phases=1 Bus1=447.3 kV=0.23 kW=1 PF=0.95
New Load.LOAD30 Phases=1 Bus1=448.3 kV=0.23 kW=1 PF=0.95
New Load.LOAD31 Phases=1 Bus1=468.3 kV=0.23 kW=1 PF=0.95
New Load.LOAD32 Phases=1 Bus1=473.1 kV=0.23 kW=1 PF=0.95
New Load.LOAD33 Phases=1 Bus1=484.2 kV=0.23 kW=1 PF=0.95
New Load.LOAD34 Phases=1 Bus1=492.2 kV=0.23 kW=1 PF=0.95
New Load.LOAD35 Phases=1 Bus1=520.3 kV=0.23 kW=1 PF=0.95
New Load.LOAD36 Phases=1 Bus1=522.1 kV=0.23 kW=1 PF=0.95
New Load.LOAD37 Phases=1 Bus1=527.1 kV=0.23 kW=1 PF=0.95
New Load.LOAD38 Phases=1 Bus1=554.3 kV=0.23 kW=1 PF=0.95
New Load.LOAD39 Phases=1 Bus1=590.2 kV=0.23 kW=1 PF=0.95
New Load.LOAD40 Phases=1 Bus1=591.2 kV=0.23 kW=1 PF=0.95
New Load.LOAD41 Phases=1 Bus1=622.3 kV=0.23 kW=1 PF=0.95
New Load.LOAD42 Phases=1 Bus1=645.3 kV=0.23 kW=1 PF=0.95
New Load.LOAD43 Phases=1 Bus1=679.2 kV=0.23 kW=1 PF=0.95
New Load.LOAD44 Phases=1 Bus1=692.2 kV=0.23 kW=1 PF=0.95
New Load.LOAD45 Phases=1 Bus1=708.3 kV=0.23 kW=1 PF=0.95
New Load.LOAD46 Phases=1 Bus1=748.2 kV=0.23 kW=1 PF=0.95
New Load.LOAD47 Phases=1 Bus1=783.3 kV=0.23 kW=1 PF=0.95
New Load.LOAD48 Phases=1 Bus1=802.1 kV=0.23 kW=1 PF=0.95
New Load.LOAD49 Phases=1 Bus1=816.2 kV=0.23 kW=1 PF=0.95
New Load.LOAD50 Phases=1 Bus1=831.1 kV=0.23 kW=1 PF=0.95
New Load.LOAD51 Phases=1 Bus1=833.1 kV=0.23 kW=1 PF=0.95
New Load.LOAD52 Phases=1 Bus1=854.2 kV=0.23 kW=1 PF=0.95
New Load.LOAD53 Phases=1 Bus1=886.3 kV=0.23 kW=1 PF=0.95
New Load.LOAD54 Phases=1 Bus1=889.1 kV=0.23 kW=1 PF=0.95
New Load.LOAD55 Phases=1 Bus1=939.3 kV=0.23 kW=1 PF=0.95
New Load.LOAD56 Phases=1 Bus1=945.1 kV=0.23 kW=1 PF=0.95
New Load.LOAD57 Phases=1 Bus1=960.3 kV=0.23 kW=1 PF=0.95
New Load.LOAD58 Phases=1 Bus1=989.1 kV=0.23 kW=1 PF=0.95
New Load.LOAD59 Phases=1 Bus1=1000.2 kV=0.23 kW=1 PF=0.95
New Load.LOAD60 Phases=1 Bus1=1022.1 kV=0.23 kW=1 PF=0.95
New Load.LOAD61 Phases=1 Bus1=1050.3 kV=0.23 kW=1 PF=0.95
New Load.LOAD62 Phases=1 Bus1=1078.1 kV=0.23 kW=1 PF=0.95
New Load.LOAD63 Phases=1 Bus1=1085.2 kV=0.23 kW=1 PF=0.95
New Load.LOAD64 Phases=1 Bus1=1091.3 kV=0.23 kW=1 PF=0.95
New Load.LOAD65 Phases=1 Bus1=1144.1 kV=0.23 kW=1 PF=0.95
New Load.LOAD66 Phases=1 Bus1=1147.2 kV=0.23 kW=1 PF=0.95
New Load.LOAD67 Phases=1 Bus1=1150.3 kV=0.23 kW=1 PF=0.95
New Load.LOAD68 Phases=1 Bus1=1161.1 kV=0.23 kW=1 PF=0.95
New Load.LOAD69 Phases=1 Bus1=1163.3 kV=0.23 kW=1 PF=0.95
New Load.LOAD70 Phases=1 Bus1=1172.3 kV=0.23 kW=1 PF=0.95
New Load.LOAD71 Phases=1 Bus1=1194.1 kV=0.23 kW=1 PF=0.95
New Load.LOAD72 Phases=1 Bus1=1207.1 kV=0.23 kW=1 PF=0.95
New Load.LOAD73 Phases=1 Bus1=1212.1 kV=0.23 kW=1 PF=0.95
New Load.LOAD74 Phases=1 Bus1=1216.2 kV=0.23 kW=1 PF=0.95
New Load.LOAD75 Phases=1 Bus1=1230.2 kV=0.23 kW=1 PF=0.95
